<?xml version="1.0" encoding="UTF-8"?>

<!-- generated on 2021-05-27 01:01:47 by Eclipse SUMO netedit Version 1.9.2
<configuration xmlns:xsi="http://www.w3.org/2001/XMLSchema-instance" xsi:noNamespaceSchemaLocation="http://sumo.dlr.de/xsd/netconvertConfiguration.xsd">

    <output>
        <output-file value="C:\Users\jaapm\OneDrive\Desktop\Jaap&apos;s%20Archief\Year%203%20TCS\Research\Python_Sumo\Justin.net.xml"/>
    </output>

    <processing>
        <offset.disable-normalization value="true"/>
    </processing>

    <junctions>
        <no-turnarounds value="true"/>
    </junctions>

    <report>
        <aggregate-warnings value="5"/>
    </report>

</configuration>
-->

<net version="1.9" junctionCornerDetail="5" limitTurnSpeed="5.50" xmlns:xsi="http://www.w3.org/2001/XMLSchema-instance" xsi:noNamespaceSchemaLocation="http://sumo.dlr.de/xsd/net_file.xsd">

    <location netOffset="0.00,0.00" convBoundary="-100.00,100.00,500.00,600.00" origBoundary="10000000000.00,10000000000.00,-10000000000.00,-10000000000.00" projParameter="!"/>

    <edge id=":gneJ10_0" function="internal">
        <lane id=":gneJ10_0_0" index="0" speed="13.89" length="14.40" shape="-101.60,407.20 -101.60,392.80"/>
    </edge>
    <edge id=":gneJ10_1" function="internal">
        <lane id=":gneJ10_1_0" index="0" speed="8.00" length="5.93" shape="-101.60,407.20 -101.05,403.35 -100.00,401.60"/>
    </edge>
    <edge id=":gneJ10_6" function="internal">
        <lane id=":gneJ10_6_0" index="0" speed="8.00" length="8.26" shape="-100.00,401.60 -99.40,400.60 -96.65,398.95 -92.80,398.40"/>
    </edge>
    <edge id=":gneJ10_2" function="internal">
        <lane id=":gneJ10_2_0" index="0" speed="6.51" length="9.03" shape="-92.80,401.60 -95.25,401.95 -97.00,403.00 -98.05,404.75 -98.40,407.20"/>
    </edge>
    <edge id=":gneJ10_3" function="internal">
        <lane id=":gneJ10_3_0" index="0" speed="8.00" length="14.19" shape="-92.80,401.60 -96.65,401.05 -99.40,399.40 -101.05,396.65 -101.60,392.80"/>
    </edge>
    <edge id=":gneJ10_4" function="internal">
        <lane id=":gneJ10_4_0" index="0" speed="6.51" length="9.03" shape="-98.40,392.80 -98.05,395.25 -97.00,397.00 -95.25,398.05 -92.80,398.40"/>
    </edge>
    <edge id=":gneJ10_5" function="internal">
        <lane id=":gneJ10_5_0" index="0" speed="13.89" length="14.40" shape="-98.40,392.80 -98.40,407.20"/>
    </edge>
    <edge id=":gneJ13_0" function="internal">
        <lane id=":gneJ13_0_0" index="0" speed="13.89" length="0.10" shape="-101.60,500.00 -101.60,500.00"/>
    </edge>
    <edge id=":gneJ13_1" function="internal">
        <lane id=":gneJ13_1_0" index="0" speed="13.89" length="0.10" shape="-98.40,500.00 -98.40,500.00"/>
    </edge>
    <edge id=":gneJ14_0" function="internal">
        <lane id=":gneJ14_0_0" index="0" speed="6.08" length="7.74" shape="-96.80,601.60 -98.90,601.30 -100.40,600.40 -101.30,598.90 -101.60,596.80"/>
    </edge>
    <edge id=":gneJ14_1" function="internal">
        <lane id=":gneJ14_1_0" index="0" speed="3.90" length="2.58" shape="-98.40,596.80 -98.30,597.50 -98.00,598.00 -97.50,598.30 -96.80,598.40"/>
    </edge>
    <edge id=":gneJ15_0" function="internal">
        <lane id=":gneJ15_0_0" index="0" speed="6.51" length="9.03" shape="-1.60,107.20 -1.95,104.75 -3.00,103.00 -4.75,101.95 -7.20,101.60"/>
    </edge>
    <edge id=":gneJ15_1" function="internal">
        <lane id=":gneJ15_1_0" index="0" speed="8.00" length="14.19" shape="-1.60,107.20 -1.05,103.35 0.60,100.60 3.35,98.95 7.20,98.40"/>
    </edge>
    <edge id=":gneJ15_2" function="internal">
        <lane id=":gneJ15_2_0" index="0" speed="6.51" length="9.03" shape="7.20,101.60 4.75,101.95 3.00,103.00 1.95,104.75 1.60,107.20"/>
    </edge>
    <edge id=":gneJ15_3" function="internal">
        <lane id=":gneJ15_3_0" index="0" speed="13.89" length="14.40" shape="7.20,101.60 -7.20,101.60"/>
    </edge>
    <edge id=":gneJ15_4" function="internal">
        <lane id=":gneJ15_4_0" index="0" speed="13.89" length="14.40" shape="-7.20,98.40 7.20,98.40"/>
    </edge>
    <edge id=":gneJ15_5" function="internal">
        <lane id=":gneJ15_5_0" index="0" speed="8.00" length="5.93" shape="-7.20,98.40 -3.35,98.95 -1.60,100.00"/>
    </edge>
    <edge id=":gneJ15_6" function="internal">
        <lane id=":gneJ15_6_0" index="0" speed="8.00" length="8.26" shape="-1.60,100.00 -0.60,100.60 1.05,103.35 1.60,107.20"/>
    </edge>
    <edge id=":gneJ16_0" function="internal">
        <lane id=":gneJ16_0_0" index="0" speed="6.51" length="9.03" shape="-1.60,207.20 -1.95,204.75 -3.00,203.00 -4.75,201.95 -7.20,201.60"/>
    </edge>
    <edge id=":gneJ16_1" function="internal">
        <lane id=":gneJ16_1_0" index="0" speed="13.89" length="14.40" shape="-1.60,207.20 -1.60,192.80"/>
    </edge>
    <edge id=":gneJ16_2" function="internal">
        <lane id=":gneJ16_2_0" index="0" speed="8.00" length="5.93" shape="-1.60,207.20 -1.05,203.35 0.00,201.60"/>
    </edge>
    <edge id=":gneJ16_12" function="internal">
        <lane id=":gneJ16_12_0" index="0" speed="8.00" length="8.26" shape="0.00,201.60 0.60,200.60 3.35,198.95 7.20,198.40"/>
    </edge>
    <edge id=":gneJ16_3" function="internal">
        <lane id=":gneJ16_3_0" index="0" speed="6.51" length="9.03" shape="7.20,201.60 4.75,201.95 3.00,203.00 1.95,204.75 1.60,207.20"/>
    </edge>
    <edge id=":gneJ16_4" function="internal">
        <lane id=":gneJ16_4_0" index="0" speed="13.89" length="14.40" shape="7.20,201.60 -7.20,201.60"/>
    </edge>
    <edge id=":gneJ16_5" function="internal">
        <lane id=":gneJ16_5_0" index="0" speed="8.00" length="14.19" shape="7.20,201.60 3.35,201.05 0.60,199.40 -1.05,196.65 -1.60,192.80"/>
    </edge>
    <edge id=":gneJ16_6" function="internal">
        <lane id=":gneJ16_6_0" index="0" speed="6.51" length="9.03" shape="1.60,192.80 1.95,195.25 3.00,197.00 4.75,198.05 7.20,198.40"/>
    </edge>
    <edge id=":gneJ16_7" function="internal">
        <lane id=":gneJ16_7_0" index="0" speed="13.89" length="14.40" shape="1.60,192.80 1.60,207.20"/>
    </edge>
    <edge id=":gneJ16_8" function="internal">
        <lane id=":gneJ16_8_0" index="0" speed="8.00" length="5.93" shape="1.60,192.80 1.05,196.65 -0.00,198.40"/>
    </edge>
    <edge id=":gneJ16_13" function="internal">
        <lane id=":gneJ16_13_0" index="0" speed="8.00" length="8.26" shape="-0.00,198.40 -0.60,199.40 -3.35,201.05 -7.20,201.60"/>
    </edge>
    <edge id=":gneJ16_9" function="internal">
        <lane id=":gneJ16_9_0" index="0" speed="6.51" length="9.03" shape="-7.20,198.40 -4.75,198.05 -3.00,197.00 -1.95,195.25 -1.60,192.80"/>
    </edge>
    <edge id=":gneJ16_10" function="internal">
        <lane id=":gneJ16_10_0" index="0" speed="13.89" length="14.40" shape="-7.20,198.40 7.20,198.40"/>
    </edge>
    <edge id=":gneJ16_11" function="internal">
        <lane id=":gneJ16_11_0" index="0" speed="8.00" length="14.19" shape="-7.20,198.40 -3.35,198.95 -0.60,200.60 1.05,203.35 1.60,207.20"/>
    </edge>
    <edge id=":gneJ17_0" function="internal">
        <lane id=":gneJ17_0_0" index="0" speed="6.51" length="9.03" shape="-1.60,307.20 -1.95,304.75 -3.00,303.00 -4.75,301.95 -7.20,301.60"/>
    </edge>
    <edge id=":gneJ17_1" function="internal">
        <lane id=":gneJ17_1_0" index="0" speed="13.89" length="14.40" shape="-1.60,307.20 -1.60,292.80"/>
    </edge>
    <edge id=":gneJ17_2" function="internal">
        <lane id=":gneJ17_2_0" index="0" speed="8.00" length="5.93" shape="-1.60,307.20 -1.05,303.35 -0.00,301.60"/>
    </edge>
    <edge id=":gneJ17_12" function="internal">
        <lane id=":gneJ17_12_0" index="0" speed="8.00" length="8.26" shape="-0.00,301.60 0.60,300.60 3.35,298.95 7.20,298.40"/>
    </edge>
    <edge id=":gneJ17_3" function="internal">
        <lane id=":gneJ17_3_0" index="0" speed="6.51" length="9.03" shape="7.20,301.60 4.75,301.95 3.00,303.00 1.95,304.75 1.60,307.20"/>
    </edge>
    <edge id=":gneJ17_4" function="internal">
        <lane id=":gneJ17_4_0" index="0" speed="13.89" length="14.40" shape="7.20,301.60 -7.20,301.60"/>
    </edge>
    <edge id=":gneJ17_5" function="internal">
        <lane id=":gneJ17_5_0" index="0" speed="8.00" length="14.19" shape="7.20,301.60 3.35,301.05 0.60,299.40 -1.05,296.65 -1.60,292.80"/>
    </edge>
    <edge id=":gneJ17_6" function="internal">
        <lane id=":gneJ17_6_0" index="0" speed="6.51" length="9.03" shape="1.60,292.80 1.95,295.25 3.00,297.00 4.75,298.05 7.20,298.40"/>
    </edge>
    <edge id=":gneJ17_7" function="internal">
        <lane id=":gneJ17_7_0" index="0" speed="13.89" length="14.40" shape="1.60,292.80 1.60,307.20"/>
    </edge>
    <edge id=":gneJ17_8" function="internal">
        <lane id=":gneJ17_8_0" index="0" speed="8.00" length="5.93" shape="1.60,292.80 1.05,296.65 0.00,298.40"/>
    </edge>
    <edge id=":gneJ17_13" function="internal">
        <lane id=":gneJ17_13_0" index="0" speed="8.00" length="8.26" shape="0.00,298.40 -0.60,299.40 -3.35,301.05 -7.20,301.60"/>
    </edge>
    <edge id=":gneJ17_9" function="internal">
        <lane id=":gneJ17_9_0" index="0" speed="6.51" length="9.03" shape="-7.20,298.40 -4.75,298.05 -3.00,297.00 -1.95,295.25 -1.60,292.80"/>
    </edge>
    <edge id=":gneJ17_10" function="internal">
        <lane id=":gneJ17_10_0" index="0" speed="13.89" length="14.40" shape="-7.20,298.40 7.20,298.40"/>
    </edge>
    <edge id=":gneJ17_11" function="internal">
        <lane id=":gneJ17_11_0" index="0" speed="8.00" length="14.19" shape="-7.20,298.40 -3.35,298.95 -0.60,300.60 1.05,303.35 1.60,307.20"/>
    </edge>
    <edge id=":gneJ18_0" function="internal">
        <lane id=":gneJ18_0_0" index="0" speed="6.51" length="9.03" shape="-1.60,407.20 -1.95,404.75 -3.00,403.00 -4.75,401.95 -7.20,401.60"/>
    </edge>
    <edge id=":gneJ18_1" function="internal">
        <lane id=":gneJ18_1_0" index="0" speed="13.89" length="14.40" shape="-1.60,407.20 -1.60,392.80"/>
    </edge>
    <edge id=":gneJ18_2" function="internal">
        <lane id=":gneJ18_2_0" index="0" speed="8.00" length="5.93" shape="-1.60,407.20 -1.05,403.35 -0.00,401.60"/>
    </edge>
    <edge id=":gneJ18_12" function="internal">
        <lane id=":gneJ18_12_0" index="0" speed="8.00" length="8.26" shape="-0.00,401.60 0.60,400.60 3.35,398.95 7.20,398.40"/>
    </edge>
    <edge id=":gneJ18_3" function="internal">
        <lane id=":gneJ18_3_0" index="0" speed="6.51" length="9.03" shape="7.20,401.60 4.75,401.95 3.00,403.00 1.95,404.75 1.60,407.20"/>
    </edge>
    <edge id=":gneJ18_4" function="internal">
        <lane id=":gneJ18_4_0" index="0" speed="13.89" length="14.40" shape="7.20,401.60 -7.20,401.60"/>
    </edge>
    <edge id=":gneJ18_5" function="internal">
        <lane id=":gneJ18_5_0" index="0" speed="8.00" length="14.19" shape="7.20,401.60 3.35,401.05 0.60,399.40 -1.05,396.65 -1.60,392.80"/>
    </edge>
    <edge id=":gneJ18_6" function="internal">
        <lane id=":gneJ18_6_0" index="0" speed="6.51" length="9.03" shape="1.60,392.80 1.95,395.25 3.00,397.00 4.75,398.05 7.20,398.40"/>
    </edge>
    <edge id=":gneJ18_7" function="internal">
        <lane id=":gneJ18_7_0" index="0" speed="13.89" length="14.40" shape="1.60,392.80 1.60,407.20"/>
    </edge>
    <edge id=":gneJ18_8" function="internal">
        <lane id=":gneJ18_8_0" index="0" speed="8.00" length="5.93" shape="1.60,392.80 1.05,396.65 0.00,398.40"/>
    </edge>
    <edge id=":gneJ18_13" function="internal">
        <lane id=":gneJ18_13_0" index="0" speed="8.00" length="8.26" shape="0.00,398.40 -0.60,399.40 -3.35,401.05 -7.20,401.60"/>
    </edge>
    <edge id=":gneJ18_9" function="internal">
        <lane id=":gneJ18_9_0" index="0" speed="6.51" length="9.03" shape="-7.20,398.40 -4.75,398.05 -3.00,397.00 -1.95,395.25 -1.60,392.80"/>
    </edge>
    <edge id=":gneJ18_10" function="internal">
        <lane id=":gneJ18_10_0" index="0" speed="13.89" length="14.40" shape="-7.20,398.40 7.20,398.40"/>
    </edge>
    <edge id=":gneJ18_11" function="internal">
        <lane id=":gneJ18_11_0" index="0" speed="8.00" length="14.19" shape="-7.20,398.40 -3.35,398.95 -0.60,400.60 1.05,403.35 1.60,407.20"/>
    </edge>
    <edge id=":gneJ21_0" function="internal">
        <lane id=":gneJ21_0_0" index="0" speed="13.89" length="0.10" shape="0.00,601.60 0.00,601.60"/>
    </edge>
    <edge id=":gneJ21_1" function="internal">
        <lane id=":gneJ21_1_0" index="0" speed="13.89" length="0.10" shape="0.00,598.40 0.00,598.40"/>
    </edge>
    <edge id=":gneJ23_0" function="internal">
        <lane id=":gneJ23_0_0" index="0" speed="6.08" length="7.74" shape="3.20,501.60 1.10,501.30 -0.40,500.40 -1.30,498.90 -1.60,496.80"/>
    </edge>
    <edge id=":gneJ23_1" function="internal">
        <lane id=":gneJ23_1_0" index="0" speed="3.90" length="2.58" shape="1.60,496.80 1.70,497.50 2.00,498.00 2.50,498.30 3.20,498.40"/>
    </edge>
    <edge id=":gneJ26_0" function="internal">
        <lane id=":gneJ26_0_0" index="0" speed="13.89" length="0.10" shape="100.00,601.60 100.00,601.60"/>
    </edge>
    <edge id=":gneJ26_1" function="internal">
        <lane id=":gneJ26_1_0" index="0" speed="13.89" length="0.10" shape="100.00,598.40 100.00,598.40"/>
    </edge>
    <edge id=":gneJ27_0" function="internal">
        <lane id=":gneJ27_0_0" index="0" speed="6.08" length="7.74" shape="101.60,496.80 101.30,498.90 100.40,500.40 98.90,501.30 96.80,501.60"/>
    </edge>
    <edge id=":gneJ27_1" function="internal">
        <lane id=":gneJ27_1_0" index="0" speed="3.90" length="2.58" shape="96.80,498.40 97.50,498.30 98.00,498.00 98.30,497.50 98.40,496.80"/>
    </edge>
    <edge id=":gneJ28_0" function="internal">
        <lane id=":gneJ28_0_0" index="0" speed="6.51" length="9.03" shape="98.40,407.20 98.05,404.75 97.00,403.00 95.25,401.95 92.80,401.60"/>
    </edge>
    <edge id=":gneJ28_1" function="internal">
        <lane id=":gneJ28_1_0" index="0" speed="13.89" length="14.40" shape="98.40,407.20 98.40,392.80"/>
    </edge>
    <edge id=":gneJ28_2" function="internal">
        <lane id=":gneJ28_2_0" index="0" speed="8.00" length="5.93" shape="98.40,407.20 98.95,403.35 100.00,401.60"/>
    </edge>
    <edge id=":gneJ28_12" function="internal">
        <lane id=":gneJ28_12_0" index="0" speed="8.00" length="8.26" shape="100.00,401.60 100.60,400.60 103.35,398.95 107.20,398.40"/>
    </edge>
    <edge id=":gneJ28_3" function="internal">
        <lane id=":gneJ28_3_0" index="0" speed="6.51" length="9.03" shape="107.20,401.60 104.75,401.95 103.00,403.00 101.95,404.75 101.60,407.20"/>
    </edge>
    <edge id=":gneJ28_4" function="internal">
        <lane id=":gneJ28_4_0" index="0" speed="13.89" length="14.40" shape="107.20,401.60 92.80,401.60"/>
    </edge>
    <edge id=":gneJ28_5" function="internal">
        <lane id=":gneJ28_5_0" index="0" speed="8.00" length="14.19" shape="107.20,401.60 103.35,401.05 100.60,399.40 98.95,396.65 98.40,392.80"/>
    </edge>
    <edge id=":gneJ28_6" function="internal">
        <lane id=":gneJ28_6_0" index="0" speed="6.51" length="9.03" shape="101.60,392.80 101.95,395.25 103.00,397.00 104.75,398.05 107.20,398.40"/>
    </edge>
    <edge id=":gneJ28_7" function="internal">
        <lane id=":gneJ28_7_0" index="0" speed="13.89" length="14.40" shape="101.60,392.80 101.60,407.20"/>
    </edge>
    <edge id=":gneJ28_8" function="internal">
        <lane id=":gneJ28_8_0" index="0" speed="8.00" length="5.93" shape="101.60,392.80 101.05,396.65 100.00,398.40"/>
    </edge>
    <edge id=":gneJ28_13" function="internal">
        <lane id=":gneJ28_13_0" index="0" speed="8.00" length="8.26" shape="100.00,398.40 99.40,399.40 96.65,401.05 92.80,401.60"/>
    </edge>
    <edge id=":gneJ28_9" function="internal">
        <lane id=":gneJ28_9_0" index="0" speed="6.51" length="9.03" shape="92.80,398.40 95.25,398.05 97.00,397.00 98.05,395.25 98.40,392.80"/>
    </edge>
    <edge id=":gneJ28_10" function="internal">
        <lane id=":gneJ28_10_0" index="0" speed="13.89" length="14.40" shape="92.80,398.40 107.20,398.40"/>
    </edge>
    <edge id=":gneJ28_11" function="internal">
        <lane id=":gneJ28_11_0" index="0" speed="8.00" length="14.19" shape="92.80,398.40 96.65,398.95 99.40,400.60 101.05,403.35 101.60,407.20"/>
    </edge>
    <edge id=":gneJ29_0" function="internal">
        <lane id=":gneJ29_0_0" index="0" speed="6.51" length="9.03" shape="98.40,307.20 98.05,304.75 97.00,303.00 95.25,301.95 92.80,301.60"/>
    </edge>
    <edge id=":gneJ29_1" function="internal">
        <lane id=":gneJ29_1_0" index="0" speed="13.89" length="14.40" shape="98.40,307.20 98.40,292.80"/>
    </edge>
    <edge id=":gneJ29_2" function="internal">
        <lane id=":gneJ29_2_0" index="0" speed="13.89" length="14.40" shape="101.60,292.80 101.60,307.20"/>
    </edge>
    <edge id=":gneJ29_3" function="internal">
        <lane id=":gneJ29_3_0" index="0" speed="8.00" length="5.93" shape="101.60,292.80 101.05,296.65 100.00,298.40"/>
    </edge>
    <edge id=":gneJ29_6" function="internal">
        <lane id=":gneJ29_6_0" index="0" speed="8.00" length="8.26" shape="100.00,298.40 99.40,299.40 96.65,301.05 92.80,301.60"/>
    </edge>
    <edge id=":gneJ29_4" function="internal">
        <lane id=":gneJ29_4_0" index="0" speed="6.51" length="9.03" shape="92.80,298.40 95.25,298.05 97.00,297.00 98.05,295.25 98.40,292.80"/>
    </edge>
    <edge id=":gneJ29_5" function="internal">
        <lane id=":gneJ29_5_0" index="0" speed="8.00" length="14.19" shape="92.80,298.40 96.65,298.95 99.40,300.60 101.05,303.35 101.60,307.20"/>
    </edge>
    <edge id=":gneJ30_0" function="internal">
        <lane id=":gneJ30_0_0" index="0" speed="6.51" length="9.03" shape="98.40,207.20 98.05,204.75 97.00,203.00 95.25,201.95 92.80,201.60"/>
    </edge>
    <edge id=":gneJ30_1" function="internal">
        <lane id=":gneJ30_1_0" index="0" speed="13.89" length="14.40" shape="98.40,207.20 98.40,192.80"/>
    </edge>
    <edge id=":gneJ30_2" function="internal">
        <lane id=":gneJ30_2_0" index="0" speed="13.89" length="14.40" shape="101.60,192.80 101.60,207.20"/>
    </edge>
    <edge id=":gneJ30_3" function="internal">
        <lane id=":gneJ30_3_0" index="0" speed="8.00" length="5.93" shape="101.60,192.80 101.05,196.65 100.00,198.40"/>
    </edge>
    <edge id=":gneJ30_6" function="internal">
        <lane id=":gneJ30_6_0" index="0" speed="8.00" length="8.26" shape="100.00,198.40 99.40,199.40 96.65,201.05 92.80,201.60"/>
    </edge>
    <edge id=":gneJ30_4" function="internal">
        <lane id=":gneJ30_4_0" index="0" speed="6.51" length="9.03" shape="92.80,198.40 95.25,198.05 97.00,197.00 98.05,195.25 98.40,192.80"/>
    </edge>
    <edge id=":gneJ30_5" function="internal">
        <lane id=":gneJ30_5_0" index="0" speed="8.00" length="14.19" shape="92.80,198.40 96.65,198.95 99.40,200.60 101.05,203.35 101.60,207.20"/>
    </edge>
    <edge id=":gneJ31_0" function="internal">
        <lane id=":gneJ31_0_0" index="0" speed="3.90" length="2.58" shape="98.40,103.20 98.30,102.50 98.00,102.00 97.50,101.70 96.80,101.60"/>
    </edge>
    <edge id=":gneJ31_1" function="internal">
        <lane id=":gneJ31_1_0" index="0" speed="6.08" length="7.74" shape="96.80,98.40 98.90,98.70 100.40,99.60 101.30,101.10 101.60,103.20"/>
    </edge>
    <edge id=":gneJ34_0" function="internal">
        <lane id=":gneJ34_0_0" index="0" speed="6.51" length="9.03" shape="298.40,407.20 298.05,404.75 297.00,403.00 295.25,401.95 292.80,401.60"/>
    </edge>
    <edge id=":gneJ34_1" function="internal">
        <lane id=":gneJ34_1_0" index="0" speed="13.89" length="14.40" shape="298.40,407.20 298.40,392.80"/>
    </edge>
    <edge id=":gneJ34_2" function="internal">
        <lane id=":gneJ34_2_0" index="0" speed="8.00" length="5.93" shape="298.40,407.20 298.95,403.35 300.00,401.60"/>
    </edge>
    <edge id=":gneJ34_12" function="internal">
        <lane id=":gneJ34_12_0" index="0" speed="8.00" length="8.26" shape="300.00,401.60 300.60,400.60 303.35,398.95 307.20,398.40"/>
    </edge>
    <edge id=":gneJ34_3" function="internal">
        <lane id=":gneJ34_3_0" index="0" speed="6.51" length="9.03" shape="307.20,401.60 304.75,401.95 303.00,403.00 301.95,404.75 301.60,407.20"/>
    </edge>
    <edge id=":gneJ34_4" function="internal">
        <lane id=":gneJ34_4_0" index="0" speed="13.89" length="14.40" shape="307.20,401.60 292.80,401.60"/>
    </edge>
    <edge id=":gneJ34_5" function="internal">
        <lane id=":gneJ34_5_0" index="0" speed="8.00" length="14.19" shape="307.20,401.60 303.35,401.05 300.60,399.40 298.95,396.65 298.40,392.80"/>
    </edge>
    <edge id=":gneJ34_6" function="internal">
        <lane id=":gneJ34_6_0" index="0" speed="6.51" length="9.03" shape="301.60,392.80 301.95,395.25 303.00,397.00 304.75,398.05 307.20,398.40"/>
    </edge>
    <edge id=":gneJ34_7" function="internal">
        <lane id=":gneJ34_7_0" index="0" speed="13.89" length="14.40" shape="301.60,392.80 301.60,407.20"/>
    </edge>
    <edge id=":gneJ34_8" function="internal">
        <lane id=":gneJ34_8_0" index="0" speed="8.00" length="5.93" shape="301.60,392.80 301.05,396.65 300.00,398.40"/>
    </edge>
    <edge id=":gneJ34_13" function="internal">
        <lane id=":gneJ34_13_0" index="0" speed="8.00" length="8.26" shape="300.00,398.40 299.40,399.40 296.65,401.05 292.80,401.60"/>
    </edge>
    <edge id=":gneJ34_9" function="internal">
        <lane id=":gneJ34_9_0" index="0" speed="6.51" length="9.03" shape="292.80,398.40 295.25,398.05 297.00,397.00 298.05,395.25 298.40,392.80"/>
    </edge>
    <edge id=":gneJ34_10" function="internal">
        <lane id=":gneJ34_10_0" index="0" speed="13.89" length="14.40" shape="292.80,398.40 307.20,398.40"/>
    </edge>
    <edge id=":gneJ34_11" function="internal">
        <lane id=":gneJ34_11_0" index="0" speed="8.00" length="14.19" shape="292.80,398.40 296.65,398.95 299.40,400.60 301.05,403.35 301.60,407.20"/>
    </edge>
    <edge id=":gneJ35_0" function="internal">
        <lane id=":gneJ35_0_0" index="0" speed="13.89" length="0.10" shape="300.00,601.60 300.00,601.60"/>
    </edge>
    <edge id=":gneJ35_1" function="internal">
        <lane id=":gneJ35_1_0" index="0" speed="13.89" length="0.10" shape="300.00,598.40 300.00,598.40"/>
    </edge>
    <edge id=":gneJ36_0" function="internal">
        <lane id=":gneJ36_0_0" index="0" speed="13.89" length="0.10" shape="400.00,601.60 400.00,601.60"/>
    </edge>
    <edge id=":gneJ36_1" function="internal">
        <lane id=":gneJ36_1_0" index="0" speed="13.89" length="0.10" shape="400.00,598.40 400.00,598.40"/>
    </edge>
    <edge id=":gneJ37_0" function="internal">
        <lane id=":gneJ37_0_0" index="0" speed="6.08" length="7.74" shape="303.20,501.60 301.10,501.30 299.60,500.40 298.70,498.90 298.40,496.80"/>
    </edge>
    <edge id=":gneJ37_1" function="internal">
        <lane id=":gneJ37_1_0" index="0" speed="3.90" length="2.58" shape="301.60,496.80 301.70,497.50 302.00,498.00 302.50,498.30 303.20,498.40"/>
    </edge>
    <edge id=":gneJ38_0" function="internal">
        <lane id=":gneJ38_0_0" index="0" speed="6.08" length="7.74" shape="401.60,496.80 401.30,498.90 400.40,500.40 398.90,501.30 396.80,501.60"/>
    </edge>
    <edge id=":gneJ38_1" function="internal">
        <lane id=":gneJ38_1_0" index="0" speed="3.90" length="2.58" shape="396.80,498.40 397.50,498.30 398.00,498.00 398.30,497.50 398.40,496.80"/>
    </edge>
    <edge id=":gneJ39_0" function="internal">
        <lane id=":gneJ39_0_0" index="0" speed="6.51" length="9.03" shape="398.40,407.20 398.05,404.75 397.00,403.00 395.25,401.95 392.80,401.60"/>
    </edge>
    <edge id=":gneJ39_1" function="internal">
        <lane id=":gneJ39_1_0" index="0" speed="13.89" length="14.40" shape="398.40,407.20 398.40,392.80"/>
    </edge>
    <edge id=":gneJ39_2" function="internal">
        <lane id=":gneJ39_2_0" index="0" speed="8.00" length="5.93" shape="398.40,407.20 398.95,403.35 400.00,401.60"/>
    </edge>
    <edge id=":gneJ39_12" function="internal">
        <lane id=":gneJ39_12_0" index="0" speed="8.00" length="8.26" shape="400.00,401.60 400.60,400.60 403.35,398.95 407.20,398.40"/>
    </edge>
    <edge id=":gneJ39_3" function="internal">
        <lane id=":gneJ39_3_0" index="0" speed="6.51" length="9.03" shape="407.20,401.60 404.75,401.95 403.00,403.00 401.95,404.75 401.60,407.20"/>
    </edge>
    <edge id=":gneJ39_4" function="internal">
        <lane id=":gneJ39_4_0" index="0" speed="13.89" length="14.40" shape="407.20,401.60 392.80,401.60"/>
    </edge>
    <edge id=":gneJ39_5" function="internal">
        <lane id=":gneJ39_5_0" index="0" speed="8.00" length="14.19" shape="407.20,401.60 403.35,401.05 400.60,399.40 398.95,396.65 398.40,392.80"/>
    </edge>
    <edge id=":gneJ39_6" function="internal">
        <lane id=":gneJ39_6_0" index="0" speed="6.51" length="9.03" shape="401.60,392.80 401.95,395.25 403.00,397.00 404.75,398.05 407.20,398.40"/>
    </edge>
    <edge id=":gneJ39_7" function="internal">
        <lane id=":gneJ39_7_0" index="0" speed="13.89" length="14.40" shape="401.60,392.80 401.60,407.20"/>
    </edge>
    <edge id=":gneJ39_8" function="internal">
        <lane id=":gneJ39_8_0" index="0" speed="8.00" length="5.93" shape="401.60,392.80 401.05,396.65 400.00,398.40"/>
    </edge>
    <edge id=":gneJ39_13" function="internal">
        <lane id=":gneJ39_13_0" index="0" speed="8.00" length="8.26" shape="400.00,398.40 399.40,399.40 396.65,401.05 392.80,401.60"/>
    </edge>
    <edge id=":gneJ39_9" function="internal">
        <lane id=":gneJ39_9_0" index="0" speed="6.51" length="9.03" shape="392.80,398.40 395.25,398.05 397.00,397.00 398.05,395.25 398.40,392.80"/>
    </edge>
    <edge id=":gneJ39_10" function="internal">
        <lane id=":gneJ39_10_0" index="0" speed="13.89" length="14.40" shape="392.80,398.40 407.20,398.40"/>
    </edge>
    <edge id=":gneJ39_11" function="internal">
        <lane id=":gneJ39_11_0" index="0" speed="8.00" length="14.19" shape="392.80,398.40 396.65,398.95 399.40,400.60 401.05,403.35 401.60,407.20"/>
    </edge>
    <edge id=":gneJ40_0" function="internal">
        <lane id=":gneJ40_0_0" index="0" speed="13.89" length="14.40" shape="298.40,307.20 298.40,292.80"/>
    </edge>
    <edge id=":gneJ40_1" function="internal">
        <lane id=":gneJ40_1_0" index="0" speed="8.00" length="5.93" shape="298.40,307.20 298.95,303.35 300.00,301.60"/>
    </edge>
    <edge id=":gneJ40_6" function="internal">
        <lane id=":gneJ40_6_0" index="0" speed="8.00" length="8.26" shape="300.00,301.60 300.60,300.60 303.35,298.95 307.20,298.40"/>
    </edge>
    <edge id=":gneJ40_2" function="internal">
        <lane id=":gneJ40_2_0" index="0" speed="6.51" length="9.03" shape="307.20,301.60 304.75,301.95 303.00,303.00 301.95,304.75 301.60,307.20"/>
    </edge>
    <edge id=":gneJ40_3" function="internal">
        <lane id=":gneJ40_3_0" index="0" speed="8.00" length="14.19" shape="307.20,301.60 303.35,301.05 300.60,299.40 298.95,296.65 298.40,292.80"/>
    </edge>
    <edge id=":gneJ40_4" function="internal">
        <lane id=":gneJ40_4_0" index="0" speed="6.51" length="9.03" shape="301.60,292.80 301.95,295.25 303.00,297.00 304.75,298.05 307.20,298.40"/>
    </edge>
    <edge id=":gneJ40_5" function="internal">
        <lane id=":gneJ40_5_0" index="0" speed="13.89" length="14.40" shape="301.60,292.80 301.60,307.20"/>
    </edge>
    <edge id=":gneJ41_0" function="internal">
        <lane id=":gneJ41_0_0" index="0" speed="6.51" length="9.03" shape="398.40,307.20 398.05,304.75 397.00,303.00 395.25,301.95 392.80,301.60"/>
    </edge>
    <edge id=":gneJ41_1" function="internal">
        <lane id=":gneJ41_1_0" index="0" speed="13.89" length="14.40" shape="398.40,307.20 398.40,292.80"/>
    </edge>
    <edge id=":gneJ41_2" function="internal">
        <lane id=":gneJ41_2_0" index="0" speed="8.00" length="5.93" shape="398.40,307.20 398.95,303.35 400.00,301.60"/>
    </edge>
    <edge id=":gneJ41_12" function="internal">
        <lane id=":gneJ41_12_0" index="0" speed="8.00" length="8.26" shape="400.00,301.60 400.60,300.60 403.35,298.95 407.20,298.40"/>
    </edge>
    <edge id=":gneJ41_3" function="internal">
        <lane id=":gneJ41_3_0" index="0" speed="6.51" length="9.03" shape="407.20,301.60 404.75,301.95 403.00,303.00 401.95,304.75 401.60,307.20"/>
    </edge>
    <edge id=":gneJ41_4" function="internal">
        <lane id=":gneJ41_4_0" index="0" speed="13.89" length="14.40" shape="407.20,301.60 392.80,301.60"/>
    </edge>
    <edge id=":gneJ41_5" function="internal">
        <lane id=":gneJ41_5_0" index="0" speed="8.00" length="14.19" shape="407.20,301.60 403.35,301.05 400.60,299.40 398.95,296.65 398.40,292.80"/>
    </edge>
    <edge id=":gneJ41_6" function="internal">
        <lane id=":gneJ41_6_0" index="0" speed="6.51" length="9.03" shape="401.60,292.80 401.95,295.25 403.00,297.00 404.75,298.05 407.20,298.40"/>
    </edge>
    <edge id=":gneJ41_7" function="internal">
        <lane id=":gneJ41_7_0" index="0" speed="13.89" length="14.40" shape="401.60,292.80 401.60,307.20"/>
    </edge>
    <edge id=":gneJ41_8" function="internal">
        <lane id=":gneJ41_8_0" index="0" speed="8.00" length="5.93" shape="401.60,292.80 401.05,296.65 400.00,298.40"/>
    </edge>
    <edge id=":gneJ41_13" function="internal">
        <lane id=":gneJ41_13_0" index="0" speed="8.00" length="8.26" shape="400.00,298.40 399.40,299.40 396.65,301.05 392.80,301.60"/>
    </edge>
    <edge id=":gneJ41_9" function="internal">
        <lane id=":gneJ41_9_0" index="0" speed="6.51" length="9.03" shape="392.80,298.40 395.25,298.05 397.00,297.00 398.05,295.25 398.40,292.80"/>
    </edge>
    <edge id=":gneJ41_10" function="internal">
        <lane id=":gneJ41_10_0" index="0" speed="13.89" length="14.40" shape="392.80,298.40 407.20,298.40"/>
    </edge>
    <edge id=":gneJ41_11" function="internal">
        <lane id=":gneJ41_11_0" index="0" speed="8.00" length="14.19" shape="392.80,298.40 396.65,298.95 399.40,300.60 401.05,303.35 401.60,307.20"/>
    </edge>