<configuration>

    <input>
        <net-file value="vierkant.net.xml"/>
        <route-files value="vierkant.rou.xml"/>
    </input>

    <time>
        <begin value="0"/>
        <end value="50000"/>
        <step-length value="0.2"/>
    </time>

</configuration>
