<?xml version="1.0" encoding="UTF-8"?>

<!-- generated on 2021-05-27 00:53:50 by Eclipse SUMO netedit Version 1.9.2
<configuration xmlns:xsi="http://www.w3.org/2001/XMLSchema-instance" xsi:noNamespaceSchemaLocation="http://sumo.dlr.de/xsd/netconvertConfiguration.xsd">

    <output>
        <output-file value="C:\Users\jaapm\OneDrive\Desktop\Jaap&apos;s%20Archief\Year%203%20TCS\Research\Python_Sumo\vierkant.net.xml"/>
    </output>

    <processing>
        <offset.disable-normalization value="true"/>
    </processing>

    <junctions>
        <no-turnarounds value="true"/>
    </junctions>

    <report>
        <aggregate-warnings value="5"/>
    </report>

</configuration>
-->

<net version="1.9" junctionCornerDetail="5" limitTurnSpeed="5.50" xmlns:xsi="http://www.w3.org/2001/XMLSchema-instance" xsi:noNamespaceSchemaLocation="http://sumo.dlr.de/xsd/net_file.xsd">

    <location netOffset="0.00,0.00" convBoundary="0.00,0.00,100.00,100.00" origBoundary="10000000000.00,10000000000.00,-10000000000.00,-10000000000.00" projParameter="!"/>

    <edge id=":gneJ12_0" function="internal">
        <lane id=":gneJ12_0_0" index="0" speed="6.08" length="7.74" shape="-1.60,3.20 -1.30,1.10 -0.40,-0.40 1.10,-1.30 3.20,-1.60"/>
    </edge>
    <edge id=":gneJ12_1" function="internal">
        <lane id=":gneJ12_1_0" index="0" speed="3.65" length="2.66" shape="-1.60,3.20 -0.80,2.00 0.00,1.60 0.29,1.74"/>
    </edge>
    <edge id=":gneJ12_4" function="internal">
        <lane id=":gneJ12_4_0" index="0" speed="3.65" length="2.01" shape="0.29,1.74 0.80,2.00 1.60,3.20"/>
    </edge>
    <edge id=":gneJ12_2" function="internal">
        <lane id=":gneJ12_2_0" index="0" speed="3.90" length="2.58" shape="3.20,1.60 2.50,1.70 2.00,2.00 1.70,2.50 1.60,3.20"/>
    </edge>
    <edge id=":gneJ12_3" function="internal">
        <lane id=":gneJ12_3_0" index="0" speed="3.65" length="2.08" shape="3.20,1.60 2.00,0.80 1.71,0.23"/>
    </edge>
    <edge id=":gneJ12_5" function="internal">
        <lane id=":gneJ12_5_0" index="0" speed="3.65" length="2.59" shape="1.71,0.23 1.60,-0.00 2.00,-0.80 3.20,-1.60"/>
    </edge>
    <edge id=":gneJ13_0" function="internal">
        <lane id=":gneJ13_0_0" index="0" speed="6.08" length="7.74" shape="3.20,101.60 1.10,101.30 -0.40,100.40 -1.30,98.90 -1.60,96.80"/>
    </edge>
    <edge id=":gneJ13_1" function="internal">
        <lane id=":gneJ13_1_0" index="0" speed="3.65" length="2.66" shape="3.20,101.60 2.00,100.80 1.60,100.00 1.74,99.71"/>
    </edge>
    <edge id=":gneJ13_4" function="internal">
        <lane id=":gneJ13_4_0" index="0" speed="3.65" length="2.01" shape="1.74,99.71 2.00,99.20 3.20,98.40"/>
    </edge>
    <edge id=":gneJ13_2" function="internal">
        <lane id=":gneJ13_2_0" index="0" speed="3.90" length="2.58" shape="1.60,96.80 1.70,97.50 2.00,98.00 2.50,98.30 3.20,98.40"/>
    </edge>
    <edge id=":gneJ13_3" function="internal">
        <lane id=":gneJ13_3_0" index="0" speed="3.65" length="2.08" shape="1.60,96.80 0.80,98.00 0.23,98.29"/>
    </edge>
    <edge id=":gneJ13_5" function="internal">
        <lane id=":gneJ13_5_0" index="0" speed="3.65" length="2.59" shape="0.23,98.29 0.00,98.40 -0.80,98.00 -1.60,96.80"/>
    </edge>
    <edge id=":gneJ14_0" function="internal">
        <lane id=":gneJ14_0_0" index="0" speed="6.08" length="7.74" shape="101.60,96.80 101.30,98.90 100.40,100.40 98.90,101.30 96.80,101.60"/>
    </edge>
    <edge id=":gneJ14_1" function="internal">
        <lane id=":gneJ14_1_0" index="0" speed="3.65" length="2.66" shape="101.60,96.80 100.80,98.00 100.00,98.40 99.71,98.26"/>
    </edge>
    <edge id=":gneJ14_4" function="internal">
        <lane id=":gneJ14_4_0" index="0" speed="3.65" length="2.01" shape="99.71,98.26 99.20,98.00 98.40,96.80"/>
    </edge>
    <edge id=":gneJ14_2" function="internal">
        <lane id=":gneJ14_2_0" index="0" speed="3.90" length="2.58" shape="96.80,98.40 97.50,98.30 98.00,98.00 98.30,97.50 98.40,96.80"/>
    </edge>
    <edge id=":gneJ14_3" function="internal">
        <lane id=":gneJ14_3_0" index="0" speed="3.65" length="2.08" shape="96.80,98.40 98.00,99.20 98.29,99.77"/>
    </edge>
    <edge id=":gneJ14_5" function="internal">
        <lane id=":gneJ14_5_0" index="0" speed="3.65" length="2.59" shape="98.29,99.77 98.40,100.00 98.00,100.80 96.80,101.60"/>
    </edge>
    <edge id=":gneJ15_0" function="internal">
        <lane id=":gneJ15_0_0" index="0" speed="3.90" length="2.58" shape="98.40,3.20 98.30,2.50 98.00,2.00 97.50,1.70 96.80,1.60"/>
    </edge>
    <edge id=":gneJ15_1" function="internal">
        <lane id=":gneJ15_1_0" index="0" speed="3.65" length="2.08" shape="98.40,3.20 99.20,2.00 99.77,1.71"/>
    </edge>
    <edge id=":gneJ15_4" function="internal">
        <lane id=":gneJ15_4_0" index="0" speed="3.65" length="2.59" shape="99.77,1.71 100.00,1.60 100.80,2.00 101.60,3.20"/>
    </edge>
    <edge id=":gneJ15_2" function="internal">
        <lane id=":gneJ15_2_0" index="0" speed="6.08" length="7.74" shape="96.80,-1.60 98.90,-1.30 100.40,-0.40 101.30,1.10 101.60,3.20"/>
    </edge>
    <edge id=":gneJ15_3" function="internal">
        <lane id=":gneJ15_3_0" index="0" speed="3.65" length="2.66" shape="96.80,-1.60 98.00,-0.80 98.40,0.00 98.26,0.29"/>
    </edge>
    <edge id=":gneJ15_5" function="internal">
        <lane id=":gneJ15_5_0" index="0" speed="3.65" length="2.01" shape="98.26,0.29 98.00,0.80 96.80,1.60"/>
    </edge>

    <edge id="-gneE11" from="gneJ13" to="gneJ12" priority="-1">
        <lane id="-gneE11_0" index="0" speed="13.89" length="93.60" shape="-1.60,96.80 -1.60,3.20"/>
    </edge>
    <edge id="-gneE12" from="gneJ14" to="gneJ13" priority="-1">
        <lane id="-gneE12_0" index="0" speed="13.89" length="93.60" shape="96.80,101.60 3.20,101.60"/>
    </edge>
    <edge id="-gneE13" from="gneJ15" to="gneJ14" priority="-1">
        <lane id="-gneE13_0" index="0" speed="13.89" length="93.60" shape="101.60,3.20 101.60,96.80"/>
    </edge>
    <edge id="-gneE14" from="gneJ12" to="gneJ15" priority="-1">
        <lane id="-gneE14_0" index="0" speed="13.89" length="93.60" shape="3.20,-1.60 96.80,-1.60"/>
    </edge>
    <edge id="gneE11" from="gneJ12" to="gneJ13" priority="-1">
        <lane id="gneE11_0" index="0" speed="13.89" length="93.60" shape="1.60,3.20 1.60,96.80"/>
    </edge>
    <edge id="gneE12" from="gneJ13" to="gneJ14" priority="-1">
        <lane id="gneE12_0" index="0" speed="13.89" length="93.60" shape="3.20,98.40 96.80,98.40"/>
    </edge>
    <edge id="gneE13" from="gneJ14" to="gneJ15" priority="-1">
        <lane id="gneE13_0" index="0" speed="13.89" length="93.60" shape="98.40,96.80 98.40,3.20"/>
    </edge>
    <edge id="gneE14" from="gneJ15" to="gneJ12" priority="-1">
        <lane id="gneE14_0" index="0" speed="13.89" length="93.60" shape="96.80,1.60 3.20,1.60"/>
    </edge>

    <junction id="gneJ12" type="priority" x="0.00" y="0.00" incLanes="-gneE11_0 gneE14_0" intLanes=":gneJ12_0_0 :gneJ12_4_0 :gneJ12_2_0 :gneJ12_5_0" shape="-3.20,3.20 3.20,3.20 3.20,-3.20 -0.36,-2.49 -1.60,-1.60 -2.49,-0.36 -3.02,1.24">
        <request index="0" response="0000" foes="1000" cont="0"/>
        <request index="1" response="0100" foes="0100" cont="1"/>
        <request index="2" response="0000" foes="0010" cont="0"/>
        <request index="3" response="0001" foes="0001" cont="1"/>
    </junction>
    <junction id="gneJ13" type="priority" x="0.00" y="100.00" incLanes="-gneE12_0 gneE11_0" intLanes=":gneJ13_0_0 :gneJ13_4_0 :gneJ13_2_0 :gneJ13_5_0" shape="3.20,103.20 3.20,96.80 -3.20,96.80 -2.49,100.36 -1.60,101.60 -0.36,102.49 1.24,103.02">
        <request index="0" response="0000" foes="1000" cont="0"/>
        <request index="1" response="0100" foes="0100" cont="1"/>
        <request index="2" response="0000" foes="0010" cont="0"/>
        <request index="3" response="0001" foes="0001" cont="1"/>
    </junction>
    <junction id="gneJ14" type="priority" x="100.00" y="100.00" incLanes="-gneE13_0 gneE12_0" intLanes=":gneJ14_0_0 :gneJ14_4_0 :gneJ14_2_0 :gneJ14_5_0" shape="103.20,96.80 96.80,96.80 96.80,103.20 100.36,102.49 101.60,101.60 102.49,100.36 103.02,98.76">
        <request index="0" response="0000" foes="1000" cont="0"/>
        <request index="1" response="0100" foes="0100" cont="1"/>
        <request index="2" response="0000" foes="0010" cont="0"/>
        <request index="3" response="0001" foes="0001" cont="1"/>
    </junction>
    <junction id="gneJ15" type="priority" x="100.00" y="0.00" incLanes="gneE13_0 -gneE14_0" intLanes=":gneJ15_0_0 :gneJ15_4_0 :gneJ15_2_0 :gneJ15_5_0" shape="96.80,3.20 103.20,3.20 102.49,-0.36 101.60,-1.60 100.36,-2.49 98.76,-3.02 96.80,-3.20">
        <request index="0" response="0000" foes="1000" cont="0"/>
        <request index="1" response="0100" foes="0100" cont="1"/>
        <request index="2" response="0000" foes="0010" cont="0"/>
        <request index="3" response="0001" foes="0001" cont="1"/>
    </junction>

    <junction id=":gneJ12_4_0" type="internal" x="0.29" y="1.74" incLanes=":gneJ12_1_0 gneE14_0" intLanes=":gneJ12_2_0"/>
    <junction id=":gneJ12_5_0" type="internal" x="1.71" y="0.23" incLanes=":gneJ12_3_0 -gneE11_0" intLanes=":gneJ12_0_0"/>
    <junction id=":gneJ13_4_0" type="internal" x="1.74" y="99.71" incLanes=":gneJ13_1_0 gneE11_0" intLanes=":gneJ13_2_0"/>
    <junction id=":gneJ13_5_0" type="internal" x="0.23" y="98.29" incLanes=":gneJ13_3_0 -gneE12_0" intLanes=":gneJ13_0_0"/>
    <junction id=":gneJ14_4_0" type="internal" x="99.71" y="98.26" incLanes=":gneJ14_1_0 gneE12_0" intLanes=":gneJ14_2_0"/>
    <junction id=":gneJ14_5_0" type="internal" x="98.29" y="99.77" incLanes=":gneJ14_3_0 -gneE13_0" intLanes=":gneJ14_0_0"/>
    <junction id=":gneJ15_4_0" type="internal" x="99.77" y="1.71" incLanes=":gneJ15_1_0 -gneE14_0" intLanes=":gneJ15_2_0"/>
    <junction id=":gneJ15_5_0" type="internal" x="98.26" y="0.29" incLanes=":gneJ15_3_0 gneE13_0" intLanes=":gneJ15_0_0"/>

    <connection from="-gneE11" to="-gneE14" fromLane="0" toLane="0" keepClear="0" via=":gneJ12_0_0" dir="l" state="M"/>
    <connection from="-gneE11" to="gneE11" fromLane="0" toLane="0" via=":gneJ12_1_0" dir="t" state="m"/>
    <connection from="-gneE12" to="-gneE11" fromLane="0" toLane="0" keepClear="0" via=":gneJ13_0_0" dir="l" state="M"/>
    <connection from="-gneE12" to="gneE12" fromLane="0" toLane="0" via=":gneJ13_1_0" dir="t" state="m"/>
    <connection from="-gneE13" to="-gneE12" fromLane="0" toLane="0" keepClear="0" via=":gneJ14_0_0" dir="l" state="M"/>
    <connection from="-gneE13" to="gneE13" fromLane="0" toLane="0" via=":gneJ14_1_0" dir="t" state="m"/>
    <connection from="-gneE14" to="-gneE13" fromLane="0" toLane="0" keepClear="0" via=":gneJ15_2_0" dir="l" state="M"/>
    <connection from="-gneE14" to="gneE14" fromLane="0" toLane="0" via=":gneJ15_3_0" dir="t" state="m"/>
    <connection from="gneE11" to="gneE12" fromLane="0" toLane="0" keepClear="0" via=":gneJ13_2_0" dir="r" state="M"/>
    <connection from="gneE11" to="-gneE11" fromLane="0" toLane="0" via=":gneJ13_3_0" dir="t" state="m"/>
    <connection from="gneE12" to="gneE13" fromLane="0" toLane="0" keepClear="0" via=":gneJ14_2_0" dir="r" state="M"/>
    <connection from="gneE12" to="-gneE12" fromLane="0" toLane="0" via=":gneJ14_3_0" dir="t" state="m"/>
    <connection from="gneE13" to="gneE14" fromLane="0" toLane="0" keepClear="0" via=":gneJ15_0_0" dir="r" state="M"/>
    <connection from="gneE13" to="-gneE13" fromLane="0" toLane="0" via=":gneJ15_1_0" dir="t" state="m"/>
    <connection from="gneE14" to="gneE11" fromLane="0" toLane="0" keepClear="0" via=":gneJ12_2_0" dir="r" state="M"/>
    <connection from="gneE14" to="-gneE14" fromLane="0" toLane="0" via=":gneJ12_3_0" dir="t" state="m"/>

    <connection from=":gneJ12_0" to="-gneE14" fromLane="0" toLane="0" dir="l" state="M"/>
    <connection from=":gneJ12_1" to="gneE11" fromLane="0" toLane="0" via=":gneJ12_4_0" dir="t" state="m"/>
    <connection from=":gneJ12_4" to="gneE11" fromLane="0" toLane="0" dir="t" state="M"/>
    <connection from=":gneJ12_2" to="gneE11" fromLane="0" toLane="0" dir="r" state="M"/>
    <connection from=":gneJ12_3" to="-gneE14" fromLane="0" toLane="0" via=":gneJ12_5_0" dir="t" state="m"/>
    <connection from=":gneJ12_5" to="-gneE14" fromLane="0" toLane="0" dir="t" state="M"/>
    <connection from=":gneJ13_0" to="-gneE11" fromLane="0" toLane="0" dir="l" state="M"/>
    <connection from=":gneJ13_1" to="gneE12" fromLane="0" toLane="0" via=":gneJ13_4_0" dir="t" state="m"/>
    <connection from=":gneJ13_4" to="gneE12" fromLane="0" toLane="0" dir="t" state="M"/>
    <connection from=":gneJ13_2" to="gneE12" fromLane="0" toLane="0" dir="r" state="M"/>
    <connection from=":gneJ13_3" to="-gneE11" fromLane="0" toLane="0" via=":gneJ13_5_0" dir="t" state="m"/>
    <connection from=":gneJ13_5" to="-gneE11" fromLane="0" toLane="0" dir="t" state="M"/>
    <connection from=":gneJ14_0" to="-gneE12" fromLane="0" toLane="0" dir="l" state="M"/>
    <connection from=":gneJ14_1" to="gneE13" fromLane="0" toLane="0" via=":gneJ14_4_0" dir="t" state="m"/>
    <connection from=":gneJ14_4" to="gneE13" fromLane="0" toLane="0" dir="t" state="M"/>
    <connection from=":gneJ14_2" to="gneE13" fromLane="0" toLane="0" dir="r" state="M"/>
    <connection from=":gneJ14_3" to="-gneE12" fromLane="0" toLane="0" via=":gneJ14_5_0" dir="t" state="m"/>
    <connection from=":gneJ14_5" to="-gneE12" fromLane="0" toLane="0" dir="t" state="M"/>
    <connection from=":gneJ15_0" to="gneE14" fromLane="0" toLane="0" dir="r" state="M"/>
    <connection from=":gneJ15_1" to="-gneE13" fromLane="0" toLane="0" via=":gneJ15_4_0" dir="t" state="m"/>
    <connection from=":gneJ15_4" to="-gneE13" fromLane="0" toLane="0" dir="t" state="M"/>
    <connection from=":gneJ15_2" to="-gneE13" fromLane="0" toLane="0" dir="l" state="M"/>
    <connection from=":gneJ15_3" to="gneE14" fromLane="0" toLane="0" via=":gneJ15_5_0" dir="t" state="m"/>
    <connection from=":gneJ15_5" to="gneE14" fromLane="0" toLane="0" dir="t" state="M"/>

</net>
