<configuration>

    <input>
        <net-file value="justin_backwards_lights.net.xml"/>
        <route-files value="justin_backwards.rou.xml"/>
    </input>

    <time>
        <begin value="0"/>
        <end value="50000"/>
        <step-length value="0.2"/>
    </time>

</configuration>
