<?xml version="1.0" encoding="UTF-8"?>

<!-- generated on 2021-05-27 14:44:38 by Eclipse SUMO netedit Version 1.9.2
<configuration xmlns:xsi="http://www.w3.org/2001/XMLSchema-instance" xsi:noNamespaceSchemaLocation="http://sumo.dlr.de/xsd/netconvertConfiguration.xsd">

    <output>
        <output-file value="C:\Users\jaapm\OneDrive\Desktop\Jaap&apos;s%20Archief\Year%203%20TCS\Research\Python_Sumo\justin_backwards_lights.net.xml"/>
    </output>

    <processing>
        <offset.disable-normalization value="true"/>
    </processing>

    <junctions>
        <no-turnarounds value="true"/>
    </junctions>

    <report>
        <aggregate-warnings value="5"/>
    </report>

</configuration>
-->

<net version="1.9" junctionCornerDetail="5" limitTurnSpeed="5.50" xmlns:xsi="http://www.w3.org/2001/XMLSchema-instance" xsi:noNamespaceSchemaLocation="http://sumo.dlr.de/xsd/net_file.xsd">

    <location netOffset="0.00,0.00" convBoundary="-100.00,100.00,500.00,600.00" origBoundary="10000000000.00,10000000000.00,-10000000000.00,-10000000000.00" projParameter="!"/>

    <edge id=":gneJ10_0" function="internal">
        <lane id=":gneJ10_0_0" index="0" speed="13.89" length="14.40" shape="-101.60,407.20 -101.60,392.80"/>
    </edge>
    <edge id=":gneJ10_1" function="internal">
        <lane id=":gneJ10_1_0" index="0" speed="8.00" length="5.93" shape="-101.60,407.20 -101.05,403.35 -100.00,401.60"/>
    </edge>
    <edge id=":gneJ10_2" function="internal">
        <lane id=":gneJ10_2_0" index="0" speed="3.65" length="2.34" shape="-101.60,407.20 -100.80,406.00 -100.00,405.60"/>
    </edge>
    <edge id=":gneJ10_9" function="internal">
        <lane id=":gneJ10_9_0" index="0" speed="8.00" length="8.26" shape="-100.00,401.60 -99.40,400.60 -96.65,398.95 -92.80,398.40"/>
    </edge>
    <edge id=":gneJ10_10" function="internal">
        <lane id=":gneJ10_10_0" index="0" speed="3.65" length="2.34" shape="-100.00,405.60 -99.20,406.00 -98.40,407.20"/>
    </edge>
    <edge id=":gneJ10_3" function="internal">
        <lane id=":gneJ10_3_0" index="0" speed="6.51" length="9.03" shape="-92.80,401.60 -95.25,401.95 -97.00,403.00 -98.05,404.75 -98.40,407.20"/>
    </edge>
    <edge id=":gneJ10_4" function="internal">
        <lane id=":gneJ10_4_0" index="0" speed="8.00" length="14.19" shape="-92.80,401.60 -96.65,401.05 -99.40,399.40 -101.05,396.65 -101.60,392.80"/>
    </edge>
    <edge id=":gneJ10_5" function="internal">
        <lane id=":gneJ10_5_0" index="0" speed="3.65" length="2.56" shape="-92.80,401.60 -94.00,400.80 -94.40,400.00 -94.30,399.80"/>
    </edge>
    <edge id=":gneJ10_11" function="internal">
        <lane id=":gneJ10_11_0" index="0" speed="3.65" length="2.12" shape="-94.30,399.80 -94.00,399.20 -92.80,398.40"/>
    </edge>
    <edge id=":gneJ10_6" function="internal">
        <lane id=":gneJ10_6_0" index="0" speed="6.51" length="9.03" shape="-98.40,392.80 -98.05,395.25 -97.00,397.00 -95.25,398.05 -92.80,398.40"/>
    </edge>
    <edge id=":gneJ10_7" function="internal">
        <lane id=":gneJ10_7_0" index="0" speed="13.89" length="14.40" shape="-98.40,392.80 -98.40,407.20"/>
    </edge>
    <edge id=":gneJ10_8" function="internal">
        <lane id=":gneJ10_8_0" index="0" speed="3.65" length="2.34" shape="-98.40,392.80 -99.20,394.00 -100.00,394.40"/>
    </edge>
    <edge id=":gneJ10_12" function="internal">
        <lane id=":gneJ10_12_0" index="0" speed="3.65" length="2.34" shape="-100.00,394.40 -100.80,394.00 -101.60,392.80"/>
    </edge>
    <edge id=":gneJ13_0" function="internal">
        <lane id=":gneJ13_0_0" index="0" speed="13.89" length="0.10" shape="-101.60,500.00 -101.60,500.00"/>
    </edge>
    <edge id=":gneJ13_1" function="internal">
        <lane id=":gneJ13_1_0" index="0" speed="3.65" length="2.34" shape="-101.60,500.00 -100.80,498.80 -100.00,498.40"/>
    </edge>
    <edge id=":gneJ13_4" function="internal">
        <lane id=":gneJ13_4_0" index="0" speed="3.65" length="2.34" shape="-100.00,498.40 -99.20,498.80 -98.40,500.00"/>
    </edge>
    <edge id=":gneJ13_2" function="internal">
        <lane id=":gneJ13_2_0" index="0" speed="13.89" length="0.10" shape="-98.40,500.00 -98.40,500.00"/>
    </edge>
    <edge id=":gneJ13_3" function="internal">
        <lane id=":gneJ13_3_0" index="0" speed="3.65" length="2.34" shape="-98.40,500.00 -99.20,501.20 -100.00,501.60"/>
    </edge>
    <edge id=":gneJ13_5" function="internal">
        <lane id=":gneJ13_5_0" index="0" speed="3.65" length="2.34" shape="-100.00,501.60 -100.80,501.20 -101.60,500.00"/>
    </edge>
    <edge id=":gneJ14_0" function="internal">
        <lane id=":gneJ14_0_0" index="0" speed="6.08" length="7.74" shape="-96.80,601.60 -98.90,601.30 -100.40,600.40 -101.30,598.90 -101.60,596.80"/>
    </edge>
    <edge id=":gneJ14_1" function="internal">
        <lane id=":gneJ14_1_0" index="0" speed="3.65" length="2.66" shape="-96.80,601.60 -98.00,600.80 -98.40,600.00 -98.26,599.71"/>
    </edge>
    <edge id=":gneJ14_4" function="internal">
        <lane id=":gneJ14_4_0" index="0" speed="3.65" length="2.01" shape="-98.26,599.71 -98.00,599.20 -96.80,598.40"/>
    </edge>
    <edge id=":gneJ14_2" function="internal">
        <lane id=":gneJ14_2_0" index="0" speed="3.90" length="2.58" shape="-98.40,596.80 -98.30,597.50 -98.00,598.00 -97.50,598.30 -96.80,598.40"/>
    </edge>
    <edge id=":gneJ14_3" function="internal">
        <lane id=":gneJ14_3_0" index="0" speed="3.65" length="2.08" shape="-98.40,596.80 -99.20,598.00 -99.77,598.29"/>
    </edge>
    <edge id=":gneJ14_5" function="internal">
        <lane id=":gneJ14_5_0" index="0" speed="3.65" length="2.59" shape="-99.77,598.29 -100.00,598.40 -100.80,598.00 -101.60,596.80"/>
    </edge>
    <edge id=":gneJ15_0" function="internal">
        <lane id=":gneJ15_0_0" index="0" speed="6.51" length="9.03" shape="-1.60,107.20 -1.95,104.75 -3.00,103.00 -4.75,101.95 -7.20,101.60"/>
    </edge>
    <edge id=":gneJ15_1" function="internal">
        <lane id=":gneJ15_1_0" index="0" speed="8.00" length="14.19" shape="-1.60,107.20 -1.05,103.35 0.60,100.60 3.35,98.95 7.20,98.40"/>
    </edge>
    <edge id=":gneJ15_2" function="internal">
        <lane id=":gneJ15_2_0" index="0" speed="3.65" length="2.56" shape="-1.60,107.20 -0.80,106.00 0.00,105.60 0.20,105.70"/>
    </edge>
    <edge id=":gneJ15_9" function="internal">
        <lane id=":gneJ15_9_0" index="0" speed="3.65" length="2.12" shape="0.20,105.70 0.80,106.00 1.60,107.20"/>
    </edge>
    <edge id=":gneJ15_3" function="internal">
        <lane id=":gneJ15_3_0" index="0" speed="6.51" length="9.03" shape="7.20,101.60 4.75,101.95 3.00,103.00 1.95,104.75 1.60,107.20"/>
    </edge>
    <edge id=":gneJ15_4" function="internal">
        <lane id=":gneJ15_4_0" index="0" speed="13.89" length="14.40" shape="7.20,101.60 -7.20,101.60"/>
    </edge>
    <edge id=":gneJ15_5" function="internal">
        <lane id=":gneJ15_5_0" index="0" speed="3.65" length="2.34" shape="7.20,101.60 6.00,100.80 5.60,100.00"/>
    </edge>
    <edge id=":gneJ15_10" function="internal">
        <lane id=":gneJ15_10_0" index="0" speed="3.65" length="2.34" shape="5.60,100.00 6.00,99.20 7.20,98.40"/>
    </edge>
    <edge id=":gneJ15_6" function="internal">
        <lane id=":gneJ15_6_0" index="0" speed="13.89" length="14.40" shape="-7.20,98.40 7.20,98.40"/>
    </edge>
    <edge id=":gneJ15_7" function="internal">
        <lane id=":gneJ15_7_0" index="0" speed="8.00" length="5.93" shape="-7.20,98.40 -3.35,98.95 -1.60,100.00"/>
    </edge>
    <edge id=":gneJ15_8" function="internal">
        <lane id=":gneJ15_8_0" index="0" speed="3.65" length="2.34" shape="-7.20,98.40 -6.00,99.20 -5.60,100.00"/>
    </edge>
    <edge id=":gneJ15_11" function="internal">
        <lane id=":gneJ15_11_0" index="0" speed="8.00" length="8.26" shape="-1.60,100.00 -0.60,100.60 1.05,103.35 1.60,107.20"/>
    </edge>
    <edge id=":gneJ15_12" function="internal">
        <lane id=":gneJ15_12_0" index="0" speed="3.65" length="2.34" shape="-5.60,100.00 -6.00,100.80 -7.20,101.60"/>
    </edge>
    <edge id=":gneJ16_0" function="internal">
        <lane id=":gneJ16_0_0" index="0" speed="6.51" length="9.03" shape="-1.60,207.20 -1.95,204.75 -3.00,203.00 -4.75,201.95 -7.20,201.60"/>
    </edge>
    <edge id=":gneJ16_1" function="internal">
        <lane id=":gneJ16_1_0" index="0" speed="13.89" length="14.40" shape="-1.60,207.20 -1.60,192.80"/>
    </edge>
    <edge id=":gneJ16_2" function="internal">
        <lane id=":gneJ16_2_0" index="0" speed="8.00" length="5.93" shape="-1.60,207.20 -1.05,203.35 0.00,201.60"/>
    </edge>
    <edge id=":gneJ16_3" function="internal">
        <lane id=":gneJ16_3_0" index="0" speed="3.65" length="2.34" shape="-1.60,207.20 -0.80,206.00 0.00,205.60"/>
    </edge>
    <edge id=":gneJ16_16" function="internal">
        <lane id=":gneJ16_16_0" index="0" speed="8.00" length="8.26" shape="0.00,201.60 0.60,200.60 3.35,198.95 7.20,198.40"/>
    </edge>
    <edge id=":gneJ16_17" function="internal">
        <lane id=":gneJ16_17_0" index="0" speed="3.65" length="2.34" shape="0.00,205.60 0.80,206.00 1.60,207.20"/>
    </edge>
    <edge id=":gneJ16_4" function="internal">
        <lane id=":gneJ16_4_0" index="0" speed="6.51" length="9.03" shape="7.20,201.60 4.75,201.95 3.00,203.00 1.95,204.75 1.60,207.20"/>
    </edge>
    <edge id=":gneJ16_5" function="internal">
        <lane id=":gneJ16_5_0" index="0" speed="13.89" length="14.40" shape="7.20,201.60 -7.20,201.60"/>
    </edge>
    <edge id=":gneJ16_6" function="internal">
        <lane id=":gneJ16_6_0" index="0" speed="8.00" length="5.93" shape="7.20,201.60 3.35,201.05 1.60,200.00"/>
    </edge>
    <edge id=":gneJ16_7" function="internal">
        <lane id=":gneJ16_7_0" index="0" speed="3.65" length="2.34" shape="7.20,201.60 6.00,200.80 5.60,200.00"/>
    </edge>
    <edge id=":gneJ16_18" function="internal">
        <lane id=":gneJ16_18_0" index="0" speed="8.00" length="8.26" shape="1.60,200.00 0.60,199.40 -1.05,196.65 -1.60,192.80"/>
    </edge>
    <edge id=":gneJ16_19" function="internal">
        <lane id=":gneJ16_19_0" index="0" speed="3.65" length="2.34" shape="5.60,200.00 6.00,199.20 7.20,198.40"/>
    </edge>
    <edge id=":gneJ16_8" function="internal">
        <lane id=":gneJ16_8_0" index="0" speed="6.51" length="9.03" shape="1.60,192.80 1.95,195.25 3.00,197.00 4.75,198.05 7.20,198.40"/>
    </edge>
    <edge id=":gneJ16_9" function="internal">
        <lane id=":gneJ16_9_0" index="0" speed="13.89" length="14.40" shape="1.60,192.80 1.60,207.20"/>
    </edge>
    <edge id=":gneJ16_10" function="internal">
        <lane id=":gneJ16_10_0" index="0" speed="8.00" length="5.93" shape="1.60,192.80 1.05,196.65 -0.00,198.40"/>
    </edge>
    <edge id=":gneJ16_11" function="internal">
        <lane id=":gneJ16_11_0" index="0" speed="3.65" length="2.34" shape="1.60,192.80 0.80,194.00 0.00,194.40"/>
    </edge>
    <edge id=":gneJ16_20" function="internal">
        <lane id=":gneJ16_20_0" index="0" speed="8.00" length="8.26" shape="-0.00,198.40 -0.60,199.40 -3.35,201.05 -7.20,201.60"/>
    </edge>
    <edge id=":gneJ16_21" function="internal">
        <lane id=":gneJ16_21_0" index="0" speed="3.65" length="2.34" shape="0.00,194.40 -0.80,194.00 -1.60,192.80"/>
    </edge>
    <edge id=":gneJ16_12" function="internal">
        <lane id=":gneJ16_12_0" index="0" speed="6.51" length="9.03" shape="-7.20,198.40 -4.75,198.05 -3.00,197.00 -1.95,195.25 -1.60,192.80"/>
    </edge>
    <edge id=":gneJ16_13" function="internal">
        <lane id=":gneJ16_13_0" index="0" speed="13.89" length="14.40" shape="-7.20,198.40 7.20,198.40"/>
    </edge>
    <edge id=":gneJ16_14" function="internal">
        <lane id=":gneJ16_14_0" index="0" speed="8.00" length="5.93" shape="-7.20,198.40 -3.35,198.95 -1.60,200.00"/>
    </edge>
    <edge id=":gneJ16_15" function="internal">
        <lane id=":gneJ16_15_0" index="0" speed="3.65" length="2.34" shape="-7.20,198.40 -6.00,199.20 -5.60,200.00"/>
    </edge>
    <edge id=":gneJ16_22" function="internal">
        <lane id=":gneJ16_22_0" index="0" speed="8.00" length="8.26" shape="-1.60,200.00 -0.60,200.60 1.05,203.35 1.60,207.20"/>
    </edge>
    <edge id=":gneJ16_23" function="internal">
        <lane id=":gneJ16_23_0" index="0" speed="3.65" length="2.34" shape="-5.60,200.00 -6.00,200.80 -7.20,201.60"/>
    </edge>
    <edge id=":gneJ17_0" function="internal">
        <lane id=":gneJ17_0_0" index="0" speed="6.51" length="9.03" shape="-1.60,307.20 -1.95,304.75 -3.00,303.00 -4.75,301.95 -7.20,301.60"/>
    </edge>
    <edge id=":gneJ17_1" function="internal">
        <lane id=":gneJ17_1_0" index="0" speed="13.89" length="14.40" shape="-1.60,307.20 -1.60,292.80"/>
    </edge>
    <edge id=":gneJ17_2" function="internal">
        <lane id=":gneJ17_2_0" index="0" speed="8.00" length="5.93" shape="-1.60,307.20 -1.05,303.35 -0.00,301.60"/>
    </edge>
    <edge id=":gneJ17_3" function="internal">
        <lane id=":gneJ17_3_0" index="0" speed="3.65" length="2.34" shape="-1.60,307.20 -0.80,306.00 0.00,305.60"/>
    </edge>
    <edge id=":gneJ17_16" function="internal">
        <lane id=":gneJ17_16_0" index="0" speed="8.00" length="8.26" shape="-0.00,301.60 0.60,300.60 3.35,298.95 7.20,298.40"/>
    </edge>
    <edge id=":gneJ17_17" function="internal">
        <lane id=":gneJ17_17_0" index="0" speed="3.65" length="2.34" shape="0.00,305.60 0.80,306.00 1.60,307.20"/>
    </edge>
    <edge id=":gneJ17_4" function="internal">
        <lane id=":gneJ17_4_0" index="0" speed="6.51" length="9.03" shape="7.20,301.60 4.75,301.95 3.00,303.00 1.95,304.75 1.60,307.20"/>
    </edge>
    <edge id=":gneJ17_5" function="internal">
        <lane id=":gneJ17_5_0" index="0" speed="13.89" length="14.40" shape="7.20,301.60 -7.20,301.60"/>
    </edge>
    <edge id=":gneJ17_6" function="internal">
        <lane id=":gneJ17_6_0" index="0" speed="8.00" length="5.93" shape="7.20,301.60 3.35,301.05 1.60,300.00"/>
    </edge>
    <edge id=":gneJ17_7" function="internal">
        <lane id=":gneJ17_7_0" index="0" speed="3.65" length="2.34" shape="7.20,301.60 6.00,300.80 5.60,300.00"/>
    </edge>
    <edge id=":gneJ17_18" function="internal">
        <lane id=":gneJ17_18_0" index="0" speed="8.00" length="8.26" shape="1.60,300.00 0.60,299.40 -1.05,296.65 -1.60,292.80"/>
    </edge>
    <edge id=":gneJ17_19" function="internal">
        <lane id=":gneJ17_19_0" index="0" speed="3.65" length="2.34" shape="5.60,300.00 6.00,299.20 7.20,298.40"/>
    </edge>
    <edge id=":gneJ17_8" function="internal">
        <lane id=":gneJ17_8_0" index="0" speed="6.51" length="9.03" shape="1.60,292.80 1.95,295.25 3.00,297.00 4.75,298.05 7.20,298.40"/>
    </edge>
    <edge id=":gneJ17_9" function="internal">
        <lane id=":gneJ17_9_0" index="0" speed="13.89" length="14.40" shape="1.60,292.80 1.60,307.20"/>
    </edge>
    <edge id=":gneJ17_10" function="internal">
        <lane id=":gneJ17_10_0" index="0" speed="8.00" length="5.93" shape="1.60,292.80 1.05,296.65 0.00,298.40"/>
    </edge>
    <edge id=":gneJ17_11" function="internal">
        <lane id=":gneJ17_11_0" index="0" speed="3.65" length="2.34" shape="1.60,292.80 0.80,294.00 0.00,294.40"/>
    </edge>
    <edge id=":gneJ17_20" function="internal">
        <lane id=":gneJ17_20_0" index="0" speed="8.00" length="8.26" shape="0.00,298.40 -0.60,299.40 -3.35,301.05 -7.20,301.60"/>
    </edge>
    <edge id=":gneJ17_21" function="internal">
        <lane id=":gneJ17_21_0" index="0" speed="3.65" length="2.34" shape="0.00,294.40 -0.80,294.00 -1.60,292.80"/>
    </edge>
    <edge id=":gneJ17_12" function="internal">
        <lane id=":gneJ17_12_0" index="0" speed="6.51" length="9.03" shape="-7.20,298.40 -4.75,298.05 -3.00,297.00 -1.95,295.25 -1.60,292.80"/>
    </edge>
    <edge id=":gneJ17_13" function="internal">
        <lane id=":gneJ17_13_0" index="0" speed="13.89" length="14.40" shape="-7.20,298.40 7.20,298.40"/>
    </edge>
    <edge id=":gneJ17_14" function="internal">
        <lane id=":gneJ17_14_0" index="0" speed="8.00" length="5.93" shape="-7.20,298.40 -3.35,298.95 -1.60,300.00"/>
    </edge>
    <edge id=":gneJ17_15" function="internal">
        <lane id=":gneJ17_15_0" index="0" speed="3.65" length="2.34" shape="-7.20,298.40 -6.00,299.20 -5.60,300.00"/>
    </edge>
    <edge id=":gneJ17_22" function="internal">
        <lane id=":gneJ17_22_0" index="0" speed="8.00" length="8.26" shape="-1.60,300.00 -0.60,300.60 1.05,303.35 1.60,307.20"/>
    </edge>
    <edge id=":gneJ17_23" function="internal">
        <lane id=":gneJ17_23_0" index="0" speed="3.65" length="2.34" shape="-5.60,300.00 -6.00,300.80 -7.20,301.60"/>
    </edge>
    <edge id=":gneJ18_0" function="internal">
        <lane id=":gneJ18_0_0" index="0" speed="6.51" length="9.03" shape="-1.60,407.20 -1.95,404.75 -3.00,403.00 -4.75,401.95 -7.20,401.60"/>
    </edge>
    <edge id=":gneJ18_1" function="internal">
        <lane id=":gneJ18_1_0" index="0" speed="13.89" length="14.40" shape="-1.60,407.20 -1.60,392.80"/>
    </edge>
    <edge id=":gneJ18_2" function="internal">
        <lane id=":gneJ18_2_0" index="0" speed="8.00" length="5.93" shape="-1.60,407.20 -1.05,403.35 -0.00,401.60"/>
    </edge>
    <edge id=":gneJ18_3" function="internal">
        <lane id=":gneJ18_3_0" index="0" speed="3.65" length="2.34" shape="-1.60,407.20 -0.80,406.00 0.00,405.60"/>
    </edge>
    <edge id=":gneJ18_16" function="internal">
        <lane id=":gneJ18_16_0" index="0" speed="8.00" length="8.26" shape="-0.00,401.60 0.60,400.60 3.35,398.95 7.20,398.40"/>
    </edge>
    <edge id=":gneJ18_17" function="internal">
        <lane id=":gneJ18_17_0" index="0" speed="3.65" length="2.34" shape="0.00,405.60 0.80,406.00 1.60,407.20"/>
    </edge>
    <edge id=":gneJ18_4" function="internal">
        <lane id=":gneJ18_4_0" index="0" speed="6.51" length="9.03" shape="7.20,401.60 4.75,401.95 3.00,403.00 1.95,404.75 1.60,407.20"/>
    </edge>
    <edge id=":gneJ18_5" function="internal">
        <lane id=":gneJ18_5_0" index="0" speed="13.89" length="14.40" shape="7.20,401.60 -7.20,401.60"/>
    </edge>
    <edge id=":gneJ18_6" function="internal">
        <lane id=":gneJ18_6_0" index="0" speed="8.00" length="5.93" shape="7.20,401.60 3.35,401.05 1.60,400.00"/>
    </edge>
    <edge id=":gneJ18_7" function="internal">
        <lane id=":gneJ18_7_0" index="0" speed="3.65" length="2.34" shape="7.20,401.60 6.00,400.80 5.60,400.00"/>
    </edge>
    <edge id=":gneJ18_18" function="internal">
        <lane id=":gneJ18_18_0" index="0" speed="8.00" length="8.26" shape="1.60,400.00 0.60,399.40 -1.05,396.65 -1.60,392.80"/>
    </edge>
    <edge id=":gneJ18_19" function="internal">
        <lane id=":gneJ18_19_0" index="0" speed="3.65" length="2.34" shape="5.60,400.00 6.00,399.20 7.20,398.40"/>
    </edge>
    <edge id=":gneJ18_8" function="internal">
        <lane id=":gneJ18_8_0" index="0" speed="6.51" length="9.03" shape="1.60,392.80 1.95,395.25 3.00,397.00 4.75,398.05 7.20,398.40"/>
    </edge>
    <edge id=":gneJ18_9" function="internal">
        <lane id=":gneJ18_9_0" index="0" speed="13.89" length="14.40" shape="1.60,392.80 1.60,407.20"/>
    </edge>
    <edge id=":gneJ18_10" function="internal">
        <lane id=":gneJ18_10_0" index="0" speed="8.00" length="5.93" shape="1.60,392.80 1.05,396.65 0.00,398.40"/>
    </edge>
    <edge id=":gneJ18_11" function="internal">
        <lane id=":gneJ18_11_0" index="0" speed="3.65" length="2.34" shape="1.60,392.80 0.80,394.00 0.00,394.40"/>
    </edge>
    <edge id=":gneJ18_20" function="internal">
        <lane id=":gneJ18_20_0" index="0" speed="8.00" length="8.26" shape="0.00,398.40 -0.60,399.40 -3.35,401.05 -7.20,401.60"/>
    </edge>
    <edge id=":gneJ18_21" function="internal">
        <lane id=":gneJ18_21_0" index="0" speed="3.65" length="2.34" shape="0.00,394.40 -0.80,394.00 -1.60,392.80"/>
    </edge>
    <edge id=":gneJ18_12" function="internal">
        <lane id=":gneJ18_12_0" index="0" speed="6.51" length="9.03" shape="-7.20,398.40 -4.75,398.05 -3.00,397.00 -1.95,395.25 -1.60,392.80"/>
    </edge>
    <edge id=":gneJ18_13" function="internal">
        <lane id=":gneJ18_13_0" index="0" speed="13.89" length="14.40" shape="-7.20,398.40 7.20,398.40"/>
    </edge>
    <edge id=":gneJ18_14" function="internal">
        <lane id=":gneJ18_14_0" index="0" speed="8.00" length="5.93" shape="-7.20,398.40 -3.35,398.95 -1.60,400.00"/>
    </edge>
    <edge id=":gneJ18_15" function="internal">
        <lane id=":gneJ18_15_0" index="0" speed="3.65" length="2.34" shape="-7.20,398.40 -6.00,399.20 -5.60,400.00"/>
    </edge>
    <edge id=":gneJ18_22" function="internal">
        <lane id=":gneJ18_22_0" index="0" speed="8.00" length="8.26" shape="-1.60,400.00 -0.60,400.60 1.05,403.35 1.60,407.20"/>
    </edge>
    <edge id=":gneJ18_23" function="internal">
        <lane id=":gneJ18_23_0" index="0" speed="3.65" length="2.34" shape="-5.60,400.00 -6.00,400.80 -7.20,401.60"/>
    </edge>
    <edge id=":gneJ21_0" function="internal">
        <lane id=":gneJ21_0_0" index="0" speed="13.89" length="0.10" shape="0.00,601.60 0.00,601.60"/>
    </edge>
    <edge id=":gneJ21_1" function="internal">
        <lane id=":gneJ21_1_0" index="0" speed="3.65" length="2.34" shape="0.00,601.60 -1.20,600.80 -1.60,600.00"/>
    </edge>
    <edge id=":gneJ21_4" function="internal">
        <lane id=":gneJ21_4_0" index="0" speed="3.65" length="2.34" shape="-1.60,600.00 -1.20,599.20 0.00,598.40"/>
    </edge>
    <edge id=":gneJ21_2" function="internal">
        <lane id=":gneJ21_2_0" index="0" speed="13.89" length="0.10" shape="0.00,598.40 0.00,598.40"/>
    </edge>
    <edge id=":gneJ21_3" function="internal">
        <lane id=":gneJ21_3_0" index="0" speed="3.65" length="2.34" shape="0.00,598.40 1.20,599.20 1.60,600.00"/>
    </edge>
    <edge id=":gneJ21_5" function="internal">
        <lane id=":gneJ21_5_0" index="0" speed="3.65" length="2.34" shape="1.60,600.00 1.20,600.80 0.00,601.60"/>
    </edge>
    <edge id=":gneJ23_0" function="internal">
        <lane id=":gneJ23_0_0" index="0" speed="6.08" length="7.74" shape="3.20,501.60 1.10,501.30 -0.40,500.40 -1.30,498.90 -1.60,496.80"/>
    </edge>
    <edge id=":gneJ23_1" function="internal">
        <lane id=":gneJ23_1_0" index="0" speed="3.65" length="2.66" shape="3.20,501.60 2.00,500.80 1.60,500.00 1.74,499.71"/>
    </edge>
    <edge id=":gneJ23_4" function="internal">
        <lane id=":gneJ23_4_0" index="0" speed="3.65" length="2.01" shape="1.74,499.71 2.00,499.20 3.20,498.40"/>
    </edge>
    <edge id=":gneJ23_2" function="internal">
        <lane id=":gneJ23_2_0" index="0" speed="3.90" length="2.58" shape="1.60,496.80 1.70,497.50 2.00,498.00 2.50,498.30 3.20,498.40"/>
    </edge>
    <edge id=":gneJ23_3" function="internal">
        <lane id=":gneJ23_3_0" index="0" speed="3.65" length="2.08" shape="1.60,496.80 0.80,498.00 0.23,498.29"/>
    </edge>
    <edge id=":gneJ23_5" function="internal">
        <lane id=":gneJ23_5_0" index="0" speed="3.65" length="2.59" shape="0.23,498.29 0.00,498.40 -0.80,498.00 -1.60,496.80"/>
    </edge>
    <edge id=":gneJ26_0" function="internal">
        <lane id=":gneJ26_0_0" index="0" speed="13.89" length="0.10" shape="100.00,601.60 100.00,601.60"/>
    </edge>
    <edge id=":gneJ26_1" function="internal">
        <lane id=":gneJ26_1_0" index="0" speed="3.65" length="2.34" shape="100.00,601.60 98.80,600.80 98.40,600.00"/>
    </edge>
    <edge id=":gneJ26_4" function="internal">
        <lane id=":gneJ26_4_0" index="0" speed="3.65" length="2.34" shape="98.40,600.00 98.80,599.20 100.00,598.40"/>
    </edge>
    <edge id=":gneJ26_2" function="internal">
        <lane id=":gneJ26_2_0" index="0" speed="13.89" length="0.10" shape="100.00,598.40 100.00,598.40"/>
    </edge>
    <edge id=":gneJ26_3" function="internal">
        <lane id=":gneJ26_3_0" index="0" speed="3.65" length="2.34" shape="100.00,598.40 101.20,599.20 101.60,600.00"/>
    </edge>
    <edge id=":gneJ26_5" function="internal">
        <lane id=":gneJ26_5_0" index="0" speed="3.65" length="2.34" shape="101.60,600.00 101.20,600.80 100.00,601.60"/>
    </edge>
    <edge id=":gneJ27_0" function="internal">
        <lane id=":gneJ27_0_0" index="0" speed="6.08" length="7.74" shape="101.60,496.80 101.30,498.90 100.40,500.40 98.90,501.30 96.80,501.60"/>
    </edge>
    <edge id=":gneJ27_1" function="internal">
        <lane id=":gneJ27_1_0" index="0" speed="3.65" length="2.66" shape="101.60,496.80 100.80,498.00 100.00,498.40 99.71,498.26"/>
    </edge>
    <edge id=":gneJ27_4" function="internal">
        <lane id=":gneJ27_4_0" index="0" speed="3.65" length="2.01" shape="99.71,498.26 99.20,498.00 98.40,496.80"/>
    </edge>
    <edge id=":gneJ27_2" function="internal">
        <lane id=":gneJ27_2_0" index="0" speed="3.90" length="2.58" shape="96.80,498.40 97.50,498.30 98.00,498.00 98.30,497.50 98.40,496.80"/>
    </edge>
    <edge id=":gneJ27_3" function="internal">
        <lane id=":gneJ27_3_0" index="0" speed="3.65" length="2.08" shape="96.80,498.40 98.00,499.20 98.29,499.77"/>
    </edge>
    <edge id=":gneJ27_5" function="internal">
        <lane id=":gneJ27_5_0" index="0" speed="3.65" length="2.59" shape="98.29,499.77 98.40,500.00 98.00,500.80 96.80,501.60"/>
    </edge>
    <edge id=":gneJ28_0" function="internal">
        <lane id=":gneJ28_0_0" index="0" speed="6.51" length="9.03" shape="98.40,407.20 98.05,404.75 97.00,403.00 95.25,401.95 92.80,401.60"/>
    </edge>
    <edge id=":gneJ28_1" function="internal">
        <lane id=":gneJ28_1_0" index="0" speed="13.89" length="14.40" shape="98.40,407.20 98.40,392.80"/>
    </edge>
    <edge id=":gneJ28_2" function="internal">
        <lane id=":gneJ28_2_0" index="0" speed="8.00" length="5.93" shape="98.40,407.20 98.95,403.35 100.00,401.60"/>
    </edge>
    <edge id=":gneJ28_3" function="internal">
        <lane id=":gneJ28_3_0" index="0" speed="3.65" length="2.34" shape="98.40,407.20 99.20,406.00 100.00,405.60"/>
    </edge>
    <edge id=":gneJ28_16" function="internal">
        <lane id=":gneJ28_16_0" index="0" speed="8.00" length="8.26" shape="100.00,401.60 100.60,400.60 103.35,398.95 107.20,398.40"/>
    </edge>
    <edge id=":gneJ28_17" function="internal">
        <lane id=":gneJ28_17_0" index="0" speed="3.65" length="2.34" shape="100.00,405.60 100.80,406.00 101.60,407.20"/>
    </edge>
    <edge id=":gneJ28_4" function="internal">
        <lane id=":gneJ28_4_0" index="0" speed="6.51" length="9.03" shape="107.20,401.60 104.75,401.95 103.00,403.00 101.95,404.75 101.60,407.20"/>
    </edge>
    <edge id=":gneJ28_5" function="internal">
        <lane id=":gneJ28_5_0" index="0" speed="13.89" length="14.40" shape="107.20,401.60 92.80,401.60"/>
    </edge>
    <edge id=":gneJ28_6" function="internal">
        <lane id=":gneJ28_6_0" index="0" speed="8.00" length="5.93" shape="107.20,401.60 103.35,401.05 101.60,400.00"/>
    </edge>
    <edge id=":gneJ28_7" function="internal">
        <lane id=":gneJ28_7_0" index="0" speed="3.65" length="2.34" shape="107.20,401.60 106.00,400.80 105.60,400.00"/>
    </edge>
    <edge id=":gneJ28_18" function="internal">
        <lane id=":gneJ28_18_0" index="0" speed="8.00" length="8.26" shape="101.60,400.00 100.60,399.40 98.95,396.65 98.40,392.80"/>
    </edge>
    <edge id=":gneJ28_19" function="internal">
        <lane id=":gneJ28_19_0" index="0" speed="3.65" length="2.34" shape="105.60,400.00 106.00,399.20 107.20,398.40"/>
    </edge>
    <edge id=":gneJ28_8" function="internal">
        <lane id=":gneJ28_8_0" index="0" speed="6.51" length="9.03" shape="101.60,392.80 101.95,395.25 103.00,397.00 104.75,398.05 107.20,398.40"/>
    </edge>
    <edge id=":gneJ28_9" function="internal">
        <lane id=":gneJ28_9_0" index="0" speed="13.89" length="14.40" shape="101.60,392.80 101.60,407.20"/>
    </edge>
    <edge id=":gneJ28_10" function="internal">
        <lane id=":gneJ28_10_0" index="0" speed="8.00" length="5.93" shape="101.60,392.80 101.05,396.65 100.00,398.40"/>
    </edge>
    <edge id=":gneJ28_11" function="internal">
        <lane id=":gneJ28_11_0" index="0" speed="3.65" length="2.34" shape="101.60,392.80 100.80,394.00 100.00,394.40"/>
    </edge>
    <edge id=":gneJ28_20" function="internal">
        <lane id=":gneJ28_20_0" index="0" speed="8.00" length="8.26" shape="100.00,398.40 99.40,399.40 96.65,401.05 92.80,401.60"/>
    </edge>
    <edge id=":gneJ28_21" function="internal">
        <lane id=":gneJ28_21_0" index="0" speed="3.65" length="2.34" shape="100.00,394.40 99.20,394.00 98.40,392.80"/>
    </edge>
    <edge id=":gneJ28_12" function="internal">
        <lane id=":gneJ28_12_0" index="0" speed="6.51" length="9.03" shape="92.80,398.40 95.25,398.05 97.00,397.00 98.05,395.25 98.40,392.80"/>
    </edge>
    <edge id=":gneJ28_13" function="internal">
        <lane id=":gneJ28_13_0" index="0" speed="13.89" length="14.40" shape="92.80,398.40 107.20,398.40"/>
    </edge>
    <edge id=":gneJ28_14" function="internal">
        <lane id=":gneJ28_14_0" index="0" speed="8.00" length="5.93" shape="92.80,398.40 96.65,398.95 98.40,400.00"/>
    </edge>
    <edge id=":gneJ28_15" function="internal">
        <lane id=":gneJ28_15_0" index="0" speed="3.65" length="2.34" shape="92.80,398.40 94.00,399.20 94.40,400.00"/>
    </edge>
    <edge id=":gneJ28_22" function="internal">
        <lane id=":gneJ28_22_0" index="0" speed="8.00" length="8.26" shape="98.40,400.00 99.40,400.60 101.05,403.35 101.60,407.20"/>
    </edge>
    <edge id=":gneJ28_23" function="internal">
        <lane id=":gneJ28_23_0" index="0" speed="3.65" length="2.34" shape="94.40,400.00 94.00,400.80 92.80,401.60"/>
    </edge>
    <edge id=":gneJ29_0" function="internal">
        <lane id=":gneJ29_0_0" index="0" speed="6.51" length="9.03" shape="98.40,307.20 98.05,304.75 97.00,303.00 95.25,301.95 92.80,301.60"/>
    </edge>
    <edge id=":gneJ29_1" function="internal">
        <lane id=":gneJ29_1_0" index="0" speed="13.89" length="14.40" shape="98.40,307.20 98.40,292.80"/>
    </edge>